Version 4
SHEET 1 1248 680
WIRE -288 -240 -336 -240
WIRE -160 -240 -240 -240
WIRE 64 -240 -160 -240
WIRE 128 -240 64 -240
WIRE 192 -240 128 -240
WIRE 240 -240 192 -240
WIRE 320 -240 240 -240
WIRE 464 -240 384 -240
WIRE -336 -224 -336 -240
WIRE -240 -224 -240 -240
WIRE -288 -208 -288 -240
WIRE 128 -208 128 -240
WIRE 192 -208 192 -240
WIRE -160 -192 -160 -240
WIRE -112 -192 -160 -192
WIRE 16 -192 -32 -192
WIRE 64 -192 64 -240
WIRE 16 -176 16 -192
WIRE 240 -176 240 -240
WIRE 304 -176 240 -176
WIRE 464 -176 464 -240
WIRE 464 -176 400 -176
WIRE -96 -144 -112 -144
WIRE -32 -144 -48 -144
WIRE 496 -144 496 -192
WIRE 512 -144 496 -144
WIRE 576 -144 576 -192
WIRE 576 -144 560 -144
WIRE -336 -128 -336 -144
WIRE -288 -128 -288 -160
WIRE -288 -128 -336 -128
WIRE -240 -128 -240 -144
WIRE -208 -128 -240 -128
WIRE 320 -128 272 -128
WIRE -240 -112 -240 -128
WIRE -112 -96 -112 -144
WIRE -32 -96 -32 -144
WIRE 64 -96 64 -128
WIRE 128 -96 128 -128
WIRE 128 -96 64 -96
WIRE 192 -96 192 -144
WIRE 192 -96 128 -96
WIRE 240 -96 240 -176
WIRE 304 -96 240 -96
WIRE 464 -96 464 -176
WIRE 464 -96 400 -96
WIRE 496 -96 464 -96
WIRE 128 -80 128 -96
WIRE 192 -64 192 -96
WIRE 272 -48 272 -128
WIRE 320 -48 272 -48
WIRE 16 -32 16 -96
WIRE 16 -32 -16 -32
WIRE 64 -32 16 -32
WIRE -240 -16 -240 -32
WIRE 240 -16 240 -96
WIRE 304 -16 240 -16
WIRE 464 -16 464 -96
WIRE 464 -16 400 -16
WIRE 16 16 16 -32
WIRE 544 16 528 16
WIRE 656 16 656 -96
WIRE 656 16 624 16
WIRE 192 32 192 16
WIRE 272 32 272 -48
WIRE 272 32 192 32
WIRE 320 32 272 32
WIRE 64 48 64 -32
WIRE 240 64 240 -16
WIRE 240 64 208 64
WIRE 304 64 240 64
WIRE 464 64 464 -16
WIRE 464 64 400 64
WIRE 528 64 528 16
WIRE 528 64 464 64
WIRE 560 64 528 64
WIRE 656 64 656 16
WIRE 656 64 624 64
WIRE 16 112 16 96
WIRE 128 112 128 96
WIRE 272 112 272 32
WIRE 272 112 224 112
WIRE 320 112 272 112
WIRE 464 112 464 64
WIRE 480 112 464 112
WIRE 656 112 656 64
FLAG -240 -16 0
FLAG 656 112 0
FLAG 480 112 Output
FLAG -16 -32 Basis
FLAG 224 112 Gate
FLAG 208 64 Source
FLAG -208 -128 Vss
FLAG 128 112 0
FLAG 16 112 0
SYMBOL pmos 400 -128 M270
WINDOW 0 61 105 VLeft 2
WINDOW 3 62 64 VLeft 2
SYMATTR InstName T1
SYMATTR Value SQJ469EP
SYMBOL voltage -240 -128 R0
WINDOW 123 0 0 Left 0
WINDOW 39 24 44 Left 2
WINDOW 0 -104 86 Left 2
WINDOW 3 18 88 Left 2
SYMATTR InstName Batterie
SYMATTR Value 54.6
SYMBOL res 528 32 R270
WINDOW 0 35 29 VTop 2
WINDOW 3 63 87 VBottom 2
SYMATTR InstName R1
SYMATTR Value 10
SYMBOL cap 560 80 R270
WINDOW 0 -21 61 VTop 2
WINDOW 3 7 -3 VBottom 2
SYMATTR InstName C1
SYMATTR Value 100µ
SYMBOL npn 64 0 R0
WINDOW 0 36 33 VRight 2
WINDOW 3 -12 28 VRight 2
SYMATTR InstName T5
SYMATTR Value BC546B
SYMBOL res 112 -96 R0
WINDOW 0 -12 16 VRight 2
WINDOW 3 -12 57 VRight 2
SYMATTR InstName R2
SYMATTR Value 47k
SYMBOL res 112 -224 R0
WINDOW 0 45 -2 VRight 2
WINDOW 3 44 67 VRight 2
SYMATTR InstName R3
SYMATTR Value 200k
SYMBOL res 0 -192 R0
WINDOW 0 -11 13 VRight 2
WINDOW 3 -12 63 VRight 2
SYMATTR InstName R4
SYMATTR Value 47k
SYMBOL sw -128 -192 R270
WINDOW 0 16 -9 VRight 2
WINDOW 3 16 93 VRight 2
SYMATTR InstName S1
SYMBOL voltage -16 -96 M270
WINDOW 0 -2 44 Top 2
WINDOW 3 -47 125 Bottom 2
WINDOW 123 0 0 Left 0
WINDOW 39 0 0 Left 0
SYMATTR InstName V2
SYMATTR Value PULSE(-1 1 2 0 0 6 0 1)
SYMBOL cap 176 -208 R0
WINDOW 0 33 -13 VRight 2
WINDOW 3 34 47 VRight 2
SYMATTR InstName C2
SYMATTR Value 220n
SYMBOL zener 80 -128 R180
WINDOW 0 32 53 VRight 2
WINDOW 3 -15 -25 VRight 2
SYMATTR InstName D1
SYMATTR Value BZX84C15L
SYMBOL TVS_Littelfuse_BI 320 -224 R270
WINDOW 0 16 69 VTop 2
WINDOW 38 45 -53 VBottom 2
SYMATTR InstName D2
SYMATTR SpiceModel SMDJ58CA
SYMBOL voltage -336 -240 R0
WINDOW 0 -16 57 Left 2
WINDOW 3 -48 -19 VRight 2
WINDOW 123 0 0 Left 0
WINDOW 39 -16 85 Left 2
SYMATTR InstName V3
SYMATTR Value PULSE(-1 1 1 0 0 8 0 1)
SYMBOL voltage 560 -96 M90
WINDOW 123 0 0 Left 0
WINDOW 39 -17 178 VLeft 2
WINDOW 0 42 84 VLeft 2
WINDOW 3 -51 216 VLeft 2
SYMATTR SpiceLine Rser=1
SYMATTR InstName Load
SYMATTR Value SINE(27.3 36 1)
SYMBOL sw 592 -96 R90
WINDOW 0 42 17 VRight 2
WINDOW 3 42 64 VRight 2
SYMATTR InstName S3
SYMBOL voltage 480 -192 M90
WINDOW 0 0 72 VLeft 2
WINDOW 3 -44 -4 VRight 2
WINDOW 123 0 0 Left 0
WINDOW 39 0 0 Left 0
SYMATTR InstName V1
SYMATTR Value PULSE(-1 1 3 0 0 4 0 1)
SYMBOL sw -240 -128 M180
WINDOW 0 31 33 Left 2
WINDOW 3 29 85 Left 2
SYMATTR InstName S2
SYMBOL pmos 400 -48 M270
WINDOW 0 60 106 VLeft 2
WINDOW 3 60 62 VLeft 2
SYMATTR InstName T2
SYMATTR Value SQJ469EP
SYMBOL pmos 400 32 M270
WINDOW 0 61 105 VLeft 2
WINDOW 3 61 60 VLeft 2
SYMATTR InstName T3
SYMATTR Value SQJ469EP
SYMBOL pmos 400 112 M270
WINDOW 0 62 105 VLeft 2
WINDOW 3 63 63 VLeft 2
SYMATTR InstName T4
SYMATTR Value SQJ469EP
SYMBOL res 208 32 R180
WINDOW 0 32 73 VRight 2
WINDOW 3 32 -6 VRight 2
SYMATTR InstName R7
SYMATTR Value 1k
SYMBOL res 0 0 R0
WINDOW 0 -12 10 VRight 2
WINDOW 3 -11 55 VRight 2
SYMATTR InstName R5
SYMATTR Value 10k
TEXT -504 56 Left 2 !.tran 0 10s 0 0.001
TEXT -504 88 Left 2 !.model sw sw(Ron=1m)
TEXT -504 120 Left 2 !.step param voltage list 12 24 36 48 54.6
